/*--------------------------------*- C++ -*----------------------------------*\
  =========                 |
  \\      /  F ield         | OpenFOAM: The Open Source CFD Toolbox
   \\    /   O peration     | Website:  https://openfoam.org
    \\  /    A nd           | Version:  10
     \\/     M anipulation  |
\*---------------------------------------------------------------------------*/
FoamFile
{
    format      ascii;
    class       volScalarField;
    object      pCom;
}
// * * * * * * * * * * * * * * * * * * * * * * * * * * * * * * * * * * * * * //

dimensions      [1 -1 -2 0 0 0 0];

internalField   uniform 0;

boundaryField
{

    outer-part-sys_solid1
    {
        type           /* type */;
        value          /* value */;
    }

    outer-part-sys_solid11
    {
        type           /* type */;
        value          /* value */;
    }

    outer-part-sys_solid111
    {
        type           /* type */;
        value          /* value */;
    }

    outer-part-sys_solid
    {
        type           /* type */;
        value          /* value */;
    }

    inner-part-sys_solid1
    {
        type           /* type */;
        value          /* value */;
    }

    inner-part-sys_solid11
    {
        type           /* type */;
        value          /* value */;
    }

    inner-part-sys_solid111
    {
        type           /* type */;
        value          /* value */;
    }

    inner-part-sys_solid
    {
        type           /* type */;
        value          /* value */;
    }

    javiere--calcetinsudao
    {
        type           /* type */;
        value          /* value */;
    }

}

// ************************************************************************* //

